/*--------------------------------*- C++ -*----------------------------------*\
| =========                 |                                                 |
| \\      /  F ield         | OpenFOAM: The Open Source CFD Toolbox           |
|  \\    /   O peration     | Version:  dev                                   |
|   \\  /    A nd           | Website:  www.openfoam.com                      |
|    \\/     M anipulation  |                                                 |
\*---------------------------------------------------------------------------*/
FoamFile
{
    version     2.0;
    format      ascii;
    class       dictionary;
    location    "constant";
    object      polymerProperties;
}
// * * * * * * * * * * * * * * * * * * * * * * * * * * * * * * * * * * * * * //

// Polymerization properties

//aConst              0.66;
//bConst              -1.35;
pGel                0.2;
pMax                0.8;

criticalExposure        [J/m^2] 214.5;
penetrationDepth        [m]     80e-6;

// Mechanical properties

nu                  0.32;
//nu                  0.0;
epsilonChemicalMax  -0.14;
interlayerCohesion  0.05;

Emax                    [Pa]    0.9e9;
stiffnessFactor     0.001;

// ************************************************************************* //
