/*--------------------------------*- C++ -*----------------------------------*\
| =========                 |                                                 |
| \\      /  F ield         | OpenFOAM: The Open Source CFD Toolbox           |
|  \\    /   O peration     | Version:  2106                                  |
|   \\  /    A nd           | Website:  www.openfoam.com                      |
|    \\/     M anipulation  |                                                 |
\*---------------------------------------------------------------------------*/
FoamFile
{
    version     2.0;
    format      ascii;
    arch        "LSB;label=32;scalar=64";
    class       polyBoundaryMesh;
    location    "constant/polyMesh";
    object      boundary;
}
// * * * * * * * * * * * * * * * * * * * * * * * * * * * * * * * * * * * * * //

5
(
    bottom
    {
        type            wall;
        inGroups        1(wall);
        nFaces          1;
        startFace       3;
    }
    top
    {
        type            wall;
        inGroups        1(wall);
        nFaces          1;
        startFace       4;
    }
    frontAndBack
    {
        type            empty;
        inGroups        1(empty);
        nFaces          8;
        startFace       5;
    }
    left
    {
        type            empty;
        inGroups        1(empty);
        nFaces          4;
        startFace       13;
    }
    right
    {
        type            empty;
        inGroups        1(empty);
        nFaces          4;
        startFace       17;
    }
)

// ************************************************************************* //
