/*--------------------------------*- C++ -*----------------------------------*\
| =========                 |                                                 |
| \\      /  F ield         | OpenFOAM: The Open Source CFD Toolbox           |
|  \\    /   O peration     | Version:  2106                                  |
|   \\  /    A nd           | Website:  www.openfoam.com                      |
|    \\/     M anipulation  |                                                 |
\*---------------------------------------------------------------------------*/
FoamFile
{
    version     2.0;
    format      ascii;
    arch        "LSB;label=32;scalar=64";
    class       polyBoundaryMesh;
    location    "constant/polyMesh";
    object      boundary;
}
// * * * * * * * * * * * * * * * * * * * * * * * * * * * * * * * * * * * * * //

5
(
    bottom
    {
        type            wall;
        inGroups        1(wall);
        nFaces          900;
        startFace       25500;
    }
    top
    {
        type            wall;
        inGroups        1(wall);
        nFaces          900;
        startFace       26400;
    }
    frontAndBack
    {
        type            wall;
        inGroups        1(wall);
        nFaces          600;
        startFace       27300;
    }
    left
    {
        type            wall;
        inGroups        1(wall);
        nFaces          300;
        startFace       27900;
    }
    right
    {
        type            wall;
        inGroups        1(wall);
        nFaces          300;
        startFace       28200;
    }
)

// ************************************************************************* //
